       6
geometry b
  C        -3.7970668756        1.0137221225       -0.2328307762
  H        -4.2752377657        1.9977889288       -0.2500669697
  H        -4.2274035041        0.3924288733        0.5583723132
  H        -3.8982066931        0.5212355640       -1.2047357353
 Cl        -6.5647052541        0.6581642325       -0.7744084265
 Cl        -2.0166706484        1.2428978300        0.1159702693