38
icosahedron initial guess
Ar      5.94306      -2.60807      3.9284     
Ar      -7.10239      1.8629      1.56843     
Ar      -4.64633      -2.75914      -5.30394     
Ar      3.41944      -5.48593      -3.82822     
Ar      -0.59533      1.88141      6.93729     
Ar      -2.0683      -4.76299      2.45229     
Ar      -5.61734      3.68505      -1.92659     
Ar      2.61225      -2.06135      -6.14746     
Ar      -1.31922      5.23158      4.62804     
Ar      5.84533      1.65117      3.71075     
Ar      -1.22916      -0.726092      -6.71775     
Ar      -4.4197      1.47253      -5.21705     
Ar      -4.15295      4.79248      1.71962     
Ar      2.75806      4.02236      5.54597     
Ar      5.51606      -1.92639      -3.24552     
Ar      7.20874      -0.640436      0.330884     
Ar      3.33646      3.83111      1.28976     
Ar      1.35382      1.4992      -4.70611     
Ar      -0.593918      5.21348      0.592824     
Ar      -1.79789      3.76095      -3.19018     
Ar      4.4205      1.53376      -1.98918     
Ar      -3.69955      1.85046      4.21092     
Ar      -0.55161      -3.84136      -4.27211     
Ar      -5.93814      -0.42618      -1.88289     
Ar      2.60873      -0.291152      5.48389     
Ar      4.60199      -3.96768      0.02208     
Ar      -4.37994      -1.49665      1.96227     
Ar      -3.36015      -3.84406      -1.31835     
Ar      0.601799      -5.14726      -0.602981     
Ar      1.65231      -3.40735      2.89881     
Ar      -1.39803      -1.53327      4.88823     
Ar      0.886408      2.04127      -1.05097     
Ar      3.24243      -0.272504      1.36841     
Ar      -1.81579      -0.351474      -3.06249     
Ar      1.88284      -1.52199      -2.13328     
Ar      -2.85242      1.77532      0.243564     
Ar      0.118605      1.85062      2.88181     
Ar      -0.657454      -1.51401      0.779513     

