450
optimized
Ar    -0.252293       -0.526764              1.93083
Ar    -0.25007        -0.522344              5.41833
Ar    0.707031        -3.49103              3.48031
Ar    -2.7739         -2.36244               3.4795
Ar    -2.76434        1.30868              3.48377
Ar    0.713099        2.43908              3.48333
Ar    2.86043         -0.518166              3.48295
Ar    -1.21368        -3.48796             0.363218
Ar    -3.35039        -0.524247             0.355557
Ar    -1.20368        2.42802             0.355404
Ar    2.25693         1.30453             0.355628
Ar    2.25673         -2.3406             0.352329
Ar    -0.25068        -0.523641             -1.56206
Ar    -0.246096       -0.514959              8.98137
Ar    1.7033          5.48219              5.05128
Ar    6.05824         -0.50772              5.04895
Ar    1.70567         -6.52886               5.0431
Ar    -5.37162        -4.23535              5.04085
Ar    -5.34152        3.1997              5.04909
Ar    4.81777         3.17145             -1.26438
Ar    4.82239         -4.18633             -1.27039
Ar    -2.19258        -6.51195             -1.25371
Ar    -6.50948        -0.510607             -1.26704
Ar    -2.17519        5.44322             -1.26506
Ar    -0.245742       -0.513627             -5.12902
Ar    0.7418          2.52506              7.08261
Ar    2.95036         -0.51328               7.0821
Ar    0.740628        -3.56321              7.07781
Ar    -2.83865        -2.40138              7.07632
Ar    -2.83216        1.36601               7.0826
Ar    3.92946         2.52132              5.09776
Ar    3.9279          -3.5499              5.09357
Ar    -1.85217        -5.44891              5.09224
Ar    -5.41159        -0.517046              5.09507
Ar    -1.83899        4.39639              5.09762
Ar    3.29723         4.37316               1.8937
Ar    -0.238728       5.52191              1.89297
Ar    5.49379         1.35206              1.89343
Ar    5.49606         -2.36843              1.88849
Ar    3.298           -5.40277              1.88837
Ar    -0.254738       -6.59407              1.90035
Ar    -3.81584        -5.44006              1.90053
Ar    -6.00028        -2.39359              1.89305
Ar    -5.98661        1.35587              1.89273
Ar    -3.79332        4.36875              1.89304
Ar    4.87996         -0.509061             -1.29753
Ar    1.33261         -5.3994             -1.29478
Ar    -4.39942        -3.54343             -1.28989
Ar    -4.39108        2.49975             -1.29612
Ar    1.33961         4.36475             -1.29479
Ar    2.31479         1.34994             -3.25075
Ar    2.31609         -2.37642             -3.25415
Ar    -1.23058        -3.54143             -3.24416
Ar    -3.41556        -0.516842             -3.25157
Ar    -1.22177        2.49898             -3.25106
Ar    -0.242892       -0.509279              12.6255
Ar    2.71784         8.60123              6.62111
Ar    9.33802         -0.498717              6.61694
Ar    2.75002         -9.63345              6.61298
Ar    -8.04557        -6.13557              6.60998
Ar    -7.98705        5.13854              6.61574
Ar    7.4243          5.07094             -2.91463
Ar    7.43734         -6.06411             -2.92446
Ar    -3.1897         -9.58968             -2.92157
Ar    -9.72422        -0.489768              -2.9252
Ar    -3.16451        8.51213             -2.91617
Ar    -0.240465       -0.502707             -8.75604
Ar    0.758402        2.5729              10.7102
Ar    2.99896         -0.507842              10.7098
Ar    0.761055        -3.59538              10.7063
Ar    -2.86911        -2.41553              10.7053
Ar    -2.86531        1.39933              10.7101
Ar    1.75238         5.63125              8.70448
Ar    6.21573         -0.503933              8.70248
Ar    1.76501         -6.65719              8.69822
Ar    -5.48226        -4.30334              8.69562
Ar    -5.46456        3.29672              8.70287
Ar    4.0265          2.59365               8.7723
Ar    4.03034         -3.61028              8.76935
Ar    -1.8774         -5.54017               8.7685
Ar    -5.52522        -0.504263               8.7707
Ar    -1.87326        4.51246              8.77223
Ar    4.98246         5.61881              6.69138
Ar    7.20273         -3.57902              6.68511
Ar    -0.860181       -8.56251              6.68922
Ar    -8.08884        -2.38613              6.68956
Ar    -4.45174        6.36245              6.68969
Ar    7.19901         2.57246              6.69028
Ar    4.99474         -6.63457              6.68499
Ar    -4.48001        -7.38581              6.68903
Ar    -8.07059        1.3911               6.6863
Ar    -0.867866       7.52122              6.69081
Ar    6.59447         4.46388              3.47315
Ar    6.60523         -5.47038              3.46514
Ar    -2.88111        -8.62837              3.49105
Ar    -8.71425        -0.505765              3.47436
Ar    -2.85133        7.53429              3.47178
Ar    4.32622         7.47399              3.44792
Ar    0.753939        8.63495              3.44713
Ar    8.76009         1.38019              3.44596
Ar    8.76421         -2.37552              3.44013
Ar    4.34601         -8.49235              3.44137
Ar    0.7548          -9.71518              3.45261
Ar    -6.46618        -7.37702              3.45403
Ar    -8.68016        -4.28491              3.44911
Ar    -8.62837        3.2781              3.43991
Ar    -6.41648        6.31513              3.44449
Ar    5.90338         6.29595             0.253434
Ar    -1.21437        8.60926             0.252018
Ar    8.12308         3.2448             0.252644
Ar    8.13281         -4.23951             0.243485
Ar    5.91871         -7.30066             0.246134
Ar    -1.23024        -9.70348             0.259005
Ar    -4.84221        -8.53064             0.257626
Ar    -9.2334         -2.38832              0.24976
Ar    -9.21611        1.39429             0.245429
Ar    -4.80454        7.44634             0.251289
Ar    2.36631         7.52              0.23738
Ar    8.19827         -0.497951             0.232793
Ar    2.3688          -8.5478             0.234727
Ar    -7.09364        -5.48805             0.243267
Ar    -7.06702        4.46088             0.232514
Ar    7.50401         1.36631             -2.95756
Ar    3.93128         -7.2945             -2.96185
Ar    -5.419          -6.59406             -2.95918
Ar    -7.60572        2.54504             -2.96188
Ar    0.379681        7.44052              -2.9552
Ar    7.50882         -2.36382             -2.96173
Ar    0.370267        -8.47383             -2.96004
Ar    -7.61188        -3.54843              -2.9593
Ar    -5.40763        5.56055             -2.95842
Ar    3.92658         6.28776             -2.95462
Ar    2.34503         1.37671              -6.8826
Ar    2.34789         -2.38446             -6.88577
Ar    -1.23214        -3.55354               -6.879
Ar    -3.44196        -0.504012             -6.88461
Ar    -1.22749        2.53794             -6.88305
Ar    4.91293         3.24442              -4.9265
Ar    4.92075         -4.24729             -4.93404
Ar    -2.21919        -6.5942             -4.92368
Ar    -6.61971        -0.499486             -4.93301
Ar    -2.20689        5.55848             -4.92757
Ar    4.96298         -0.502503             -4.97503
Ar    1.36583         -5.46473             -4.97573
Ar    -4.4592         -3.5738              -4.9741
Ar    -4.45113        2.55551             -4.97508
Ar    1.36738         4.44623             -4.97182
Ar    0.77175         2.61165              14.4053
Ar    3.03932         -0.505877              14.4049
Ar    0.775496        -3.62616              14.4033
Ar    -2.89643        -2.43197              14.4033
Ar    -2.89491        1.42442              14.4052
Ar    1.78408         5.7267               12.398
Ar    6.31576         -0.502472              12.3964
Ar    1.79947         -6.7373              12.3968
Ar    -5.5506         -4.34584              12.3975
Ar    -5.54242        3.35674              12.3973
Ar    4.08943         2.64065              12.4723
Ar    4.09557         -3.64996              12.4702
Ar    -1.89366        -5.59595              12.4735
Ar    -5.59718        -0.497726              12.4718
Ar    -1.89469        4.58759              12.4722
Ar    2.78679         8.81211              10.3211
Ar    9.56105         -0.498063              10.3174
Ar    2.82698         -9.81524               10.324
Ar    -8.18272        -6.22921               10.331
Ar    -8.16573        5.27101              10.3168
Ar    5.10131         5.75196              10.4268
Ar    7.36962         -3.6464              10.4221
Ar    -0.865323       -8.70717              10.4373
Ar    -8.25334        -2.40839              10.4271
Ar    -4.53928        6.51811              10.4254
Ar    7.36207         2.64527              10.4258
Ar    5.12097         -6.75569              10.4232
Ar    -4.55051        -7.50824              10.4388
Ar    -8.2416         1.43588              10.4261
Ar    -0.884353       7.69917              10.4263
Ar    6.0559          8.7811              8.28146
Ar    10.5457         -3.61322              8.27348
Ar    0.180925        -11.7318              8.30066
Ar    -10.8395        -4.28052              8.28131
Ar    -7.12238        8.36813              8.27751
Ar    8.3323          5.72704               8.2967
Ar    8.35284         -6.72074              8.28968
Ar    -3.50621        -10.5664              8.33453
Ar    -10.8381        -0.464241              8.30193
Ar    -3.51247        9.58043              8.29557
Ar    10.538          2.62178              8.27903
Ar    6.10127         -9.77421              8.27795
Ar    -7.16651        -9.34275              8.30325
Ar    -10.7946        3.33393              8.27289
Ar    0.124282        10.7103              8.28068
Ar    9.25933         6.40524              1.81066
Ar    9.28466         -7.38867              1.79901
Ar    -3.90508        -11.8067              1.82704
Ar    -12.0018        -0.471463              1.80162
Ar    -3.86365        10.6717              1.80837
Ar    7.67146         7.60102              5.02848
Ar    9.92682         -5.51081              5.01837
Ar    -1.87772        -11.827              5.08088
Ar    -11.4575        -2.38998               5.0482
Ar    -5.49637        9.53532              5.02537
Ar    9.91042         4.52457              5.02739
Ar    7.70295         -8.59437              5.01998
Ar    -5.56762        -10.6302               5.0822
Ar    -11.4123        1.43356              5.01984
Ar    -1.87657        10.7054              5.02688
Ar    5.37839         10.6225              4.99754
Ar    1.75508         11.8003              4.99678
Ar    12.0799         1.41444              4.99376
Ar    12.0853         -2.39289              4.98748
Ar    5.43524         -11.6266              4.99147
Ar    1.81145         -12.8877              5.00669
Ar    -9.19608        -9.32648              5.00781
Ar    -11.4576        -6.19805              4.99488
Ar    -11.3205        5.22564              4.98205
Ar    -9.07942        8.29866              4.99074
Ar    6.96943         9.44036              1.79118
Ar    -0.22663        11.7795              1.78967
Ar    11.4429         3.29358              1.78855
Ar    11.4555         -4.26967               1.7789
Ar    7.01531         -10.4309              1.78216
Ar    -0.186512       -12.9141              1.78444
Ar    -7.55719        -10.5246              1.78107
Ar    -11.9808        -4.28055              1.78261
Ar    -11.9171        3.33277                1.775
Ar    -7.45941        9.44082              1.78559
Ar    3.39292         10.6763               1.7851
Ar    11.5182         -0.488362              1.77819
Ar    3.44275         -11.6866              1.77532
Ar    -9.81781        -7.41989               1.7883
Ar    -9.74372        6.42658              1.77432
Ar    8.54281         8.23415             -1.40799
Ar    -2.20813        11.7288             -1.41016
Ar    10.7776         5.16306             -1.40936
Ar    10.7964         -6.13777             -1.42253
Ar    8.57474         -9.21629               -1.421
Ar    -2.21426        -12.8543             -1.43369
Ar    -5.89421        -11.66             -1.43793
Ar    -12.5001        -2.36928             -1.42646
Ar    -12.4828        1.4296             -1.42614
Ar    -5.82174        10.5593             -1.41205
Ar    4.99153         9.48772             -1.43194
Ar    10.8771         1.39852             -1.43695
Ar    5.02395         -10.482             -1.44549
Ar    -8.15405        -8.56426              -1.4538
Ar    -10.3398        4.5225             -1.44491
Ar    1.40121         10.6547             -1.43267
Ar    10.883          -2.37549             -1.44165
Ar    1.43142         -11.6739             -1.44855
Ar    -10.3692        -5.48856             -1.44712
Ar    -8.11565        7.57201             -1.43975
Ar    10.1523         3.26993             -4.62901
Ar    6.56991         -9.20769             -4.64175
Ar    -6.45759        -9.67898             -4.65975
Ar    -10.8585        2.58409             -4.64128
Ar    -0.601391       10.5486             -4.62717
Ar    10.1839         -0.489585             -4.64695
Ar    2.99863         -10.4072             -4.65819
Ar    -8.67874        -6.61263             -4.66302
Ar    -8.66448        5.63531             -4.64976
Ar    2.982           9.41156                -4.64
Ar    10.1639         -4.24776             -4.63764
Ar    -0.597057       -11.5863             -4.65404
Ar    -10.8665        -3.54225             -4.64557
Ar    -6.42836        8.65833             -4.63155
Ar    6.54928         8.22433             -4.62584
Ar    2.36699         1.39716              -10.549
Ar    2.37004         -2.38782             -10.5527
Ar    -1.23259        -3.56033             -10.5501
Ar    -3.45879        -0.493831             -10.5527
Ar    -1.23089        2.56673             -10.5496
Ar    4.96729         3.28754             -8.60249
Ar    4.97613         -4.27574             -8.61129
Ar    -2.22719        -6.6242             -8.60846
Ar    -6.67753        -0.488846             -8.61196
Ar    -2.22333        5.62496             -8.60379
Ar    5.01372         -0.494964             -8.65476
Ar    1.3884          -5.49381             -8.65839
Ar    -4.49022        -3.58366             -8.65863
Ar    -4.48493        2.59182             -8.65563
Ar    1.38513         4.49697             -8.65121
Ar    7.54258         5.16024             -6.60896
Ar    7.55866         -6.14198             -6.62142
Ar    -3.21665        -9.67502             -6.63755
Ar    -9.86451        -0.480112             -6.62417
Ar    -3.20575        8.65398             -6.61091
Ar    7.61299         1.39503             -6.67596
Ar    3.99551         -7.37892             -6.68587
Ar    -5.48855        -6.64777             -6.68787
Ar    -7.70079        2.59751             -6.68205
Ar    0.39372         7.55391             -6.67336
Ar    7.61829         -2.3803             -6.68046
Ar    0.3969          -8.56093             -6.68567
Ar    -7.70828        -3.57581             -6.68723
Ar    -5.47654        5.64881             -6.67772
Ar    3.98384         6.3869              -6.6727
Ar    3.77324         11.847              8.16535
Ar    12.7519         -0.493463              8.15953
Ar    3.8691          -12.8367              8.18579
Ar    -10.774         -8.08584              8.23683
Ar    -10.7448        7.15225              8.15676
Ar    10.0767         7.00301             -4.58812
Ar    10.0994         -7.97676             -4.60328
Ar    -4.20874        -12.7304             -4.69898
Ar    -12.999         -0.469175             -4.60902
Ar    -4.17228        11.6345             -4.59068
Ar    -0.236406       -0.494283             -12.4405
Ar    11.9561         8.36912             0.143034
Ar    11.9936         -9.33356             0.127769
Ar    -15.3326        -0.44564               0.1207
Ar    -4.889          13.8459             0.139792
Ar    10.3819         9.59586              3.36459
Ar    12.6693         -7.45931              3.35264
Ar    -14.8079        -2.35519              3.36148
Ar    -6.54662        12.7322              3.36012
Ar    12.6408         6.49222              3.36331
Ar    10.4319         -10.5659              3.35531
Ar    -14.7764        1.47845              3.34815
Ar    -2.89492        13.9126              3.36217
Ar    8.7745          10.7882              6.59735
Ar    13.3032         -5.56329               6.5862
Ar    -8.18299        11.5767              6.59186
Ar    11.0601         7.71404              6.59663
Ar    11.095          -8.6883              6.59027
Ar    -14.2282        -0.42222               6.6025
Ar    -4.55052        12.791              6.59431
Ar    13.2827         4.59401              6.59493
Ar    8.83019         -11.7708              6.59298
Ar    -14.1715        3.39654              6.58109
Ar    -0.894214       13.932              6.59564
Ar    8.05368         12.6387              3.35113
Ar    0.77728         15.004              3.34956
Ar    14.8201         3.34212              3.34649
Ar    14.8345         -4.30398              3.33728
Ar    8.1417          -13.6148              3.33743
Ar    -14.6687        5.3006              3.32714
Ar    -10.1613        11.469               3.3419
Ar    4.43369         13.8776              3.36685
Ar    14.8855         -0.48161              3.35761
Ar    4.55246         -14.878              3.33478
Ar    -12.4619        8.41704               3.3507
Ar    9.65346         11.4319             0.127112
Ar    -1.22564        14.9685             0.124902
Ar    14.1624         5.23692             0.123782
Ar    14.1836         -6.1963             0.111221
Ar    9.71953         -12.401             0.109025
Ar    -15.3063        -4.27368             0.101139
Ar    -15.2555        3.38086             0.102736
Ar    -8.5149         12.6119             0.119335
Ar    6.05679         12.7009             0.118354
Ar    14.2632         1.42562              0.11103
Ar    6.14381         -13.6788            0.0908079
Ar    -10.935         -10.5344            0.0577318
Ar    -13.083         6.51121            0.0983364
Ar    2.42955         13.88             0.117554
Ar    14.2697         -2.38636             0.106086
Ar    2.54365         -14.8942            0.0813659
Ar    -13.1566        -7.42771            0.0793501
Ar    -10.8369        9.58935             0.105463
Ar    11.2383         10.207             -3.09424
Ar    -3.22729        14.9094             -3.09705
Ar    13.4828         7.12298             -3.09625
Ar    13.5105         -8.08068             -3.11236
Ar    11.2838         -11.1712             -3.11676
Ar    -15.8368        -2.35515             -3.12693
Ar    -15.8186        1.45594             -3.12022
Ar    -6.85608        13.7355             -3.10049
Ar    7.65233         11.4729             -3.10832
Ar    13.5836         3.32191             -3.11376
Ar    7.70725         -12.445             -3.13472
Ar    -9.25408        -11.6805             -3.17285
Ar    -13.6537        4.57786             -3.12997
Ar    4.0461          12.6836             -3.12053
Ar    13.626          -0.480571             -3.13009
Ar    4.11618         -13.6653             -3.15554
Ar    -11.4945        -8.59626              -3.1711
Ar    -11.4417        7.6694             -3.13566
Ar    0.417344        13.8248             -3.10982
Ar    13.5965         -4.28229             -3.12312
Ar    0.498696        -14.8474             -3.15046
Ar    -13.6898        -5.49338             -3.14565
Ar    -9.17217        10.72             -3.11821
Ar    12.8527         5.21579             -6.32345
Ar    9.26362         -11.1636             -6.34468
Ar    -14.1817        2.61578             -6.34348
Ar    -1.60868        13.7198             -6.32214
Ar    12.8928         1.41838             -6.34571
Ar    5.66603         -12.3761             -6.36974
Ar    -9.76914        -9.72067             -6.39142
Ar    -11.9713        5.70288             -6.35584
Ar    2.014           12.5788             -6.33918
Ar    12.8991         -2.38121             -6.35042
Ar    2.05724         -13.5674             -6.37865
Ar    -11.9926        -6.63588             -6.37942
Ar    -9.73215        8.77217             -6.35008
Ar    5.62843         11.4039             -6.33845
Ar    12.8711         -6.17822             -6.33659
Ar    -14.193         -3.53939             -6.35287
Ar    -7.46751        11.8205             -6.32729
Ar    9.22962         10.1967             -6.32004
Ar    2.38312         1.41208             -14.2844
Ar    2.38486         -2.39165             -14.2888
Ar    -1.23436        -3.56878             -14.2886
Ar    -3.47102        -0.488553             -14.2895
Ar    -1.23365        2.58771             -14.2851
Ar    5.01408         3.32434             -12.3256
Ar    5.021           -4.3018             -12.3354
Ar    -2.23891        -6.66366              -12.336
Ar    -6.72663        -0.483524             -12.3371
Ar    -2.23807        5.68168             -12.3271
Ar    5.0571          -0.489356             -12.3721
Ar    1.40323         -5.52336             -12.3778
Ar    -4.51698        -3.59898             -12.3789
Ar    -4.5149         2.6216             -12.3734
Ar    1.40029         4.54085             -12.3683
Ar    7.63024         5.22649             -10.3347
Ar    7.64482         -6.19896             -10.3491
Ar    -3.23968        -9.74811             -10.3602
Ar    -9.96493        -0.475168             -10.3528
Ar    -3.23635        8.75874             -10.3369
Ar    7.6947          1.41969             -10.4093
Ar    4.04052         -7.44004             -10.4224
Ar    -5.53219        -6.69433             -10.4254
Ar    -7.77294        2.63407             -10.4164
Ar    0.40181         7.63987             -10.4065
Ar    7.6997          -2.39462             -10.4142
Ar    0.406942        -8.6256             -10.4225
Ar    -7.77727        -3.59812             -10.4253
Ar    -5.52653        5.71676             -10.4115
Ar    4.02944         6.46064             -10.4058
Ar    10.2287         7.11608             -8.31253
Ar    10.2516         -8.0816             -8.33041
Ar    -13.1814        -0.464922             -8.33653
Ar    -4.22761        11.8152             -8.31529
Ar    10.2936         3.31762             -8.38697
Ar    6.65755         -9.32055             -8.40451
Ar    -6.53129        -9.77166             -8.41674
Ar    -10.9933        2.63604              -8.4003
Ar    -0.597285       10.6989             -8.38507
Ar    10.3267         -0.484926             -8.41476
Ar    3.04654         -10.5297             -8.43312
Ar    -8.78687        -6.68123             -8.43938
Ar    -8.77544        5.72335             -8.41799
Ar    3.0278          9.54988             -8.40763
Ar    10.3054         -4.28641             -8.39623
Ar    -0.591792       -11.7043             -8.41145
Ar    -11.0005        -3.58037             -8.40992
Ar    -6.51314        8.78011             -8.38994
Ar    6.63569         8.34773             -8.38366
